%chk=etoh.chk
# opt lsda/sto-3g

Title Card Required

0 1
 C                  1.50526314    1.34210522    0.00000000
 H                  1.86191756    0.33329521    0.00000000
 H                  0.43526314    1.34211840    0.00000000
 O                  1.98193805    2.01620747    1.16759033
 H                  1.66359869    2.92188945    1.16713827
 C                  2.01860536    2.06806150   -1.25740497
 H                  1.72792478    1.52009836   -2.12926574
 H                  1.59888120    3.05147315   -1.29781712
 H                  3.08568283    2.13701095   -1.21878316

