%chk=meoh.chk
# opt lsda/sto-3g

Title Card Required

0 1
 C                  1.50526314    1.34210522    0.00000000
 H                  1.86191756    0.33329521    0.00000000
 H                  1.86193598    1.84650341   -0.87365150
 H                  0.43526314    1.34211840    0.00000000
 O                  1.98193805    2.01620747    1.16759033
 H                  1.66359869    2.92188945    1.16713827

